*SRC=1N4148;DI_1N4148;Diodes;Si; 75.0V 0.300A 4.00ns Diodes Inc. -
.MODEL DI_1N4148 D ( IS=222p RS=68.6m BV=75.0 IBV=1.00u
+ CJO=4.00p M=0.333 N=1.65 TT=5.76n )
*